# generated using pymatgen
data_Cd31Te32
_symmetry_space_group_name_H-M   'P 1'
_cell_length_a   13.08676800
_cell_length_b   13.08676800
_cell_length_c   13.08676800
_cell_angle_alpha   90.00000000
_cell_angle_beta   90.00000000
_cell_angle_gamma   90.00000000
_symmetry_Int_Tables_number   1
_chemical_formula_structural   Cd31Te32
_chemical_formula_sum   'Cd31 Te32'
_cell_volume   2241.28564800
_cell_formula_units_Z   1
loop_
 _symmetry_equiv_pos_site_id
 _symmetry_equiv_pos_as_xyz
  1  'x, y, z'
loop_
 _atom_site_type_symbol
 _atom_site_label
 _atom_site_symmetry_multiplicity
 _atom_site_fract_x
 _atom_site_fract_y
 _atom_site_fract_z
 _atom_site_occupancy
  Cd  Cd0  1  0.48903540  -0.01822568  0.02076156  1
  Cd  Cd1  1  0.78434224  0.26785129  -0.00103403  1
  Cd  Cd2  1  0.75965591  -0.00086720  0.23940659  1
  Cd  Cd3  1  0.22180493  0.24677418  -0.02203545  1
  Cd  Cd4  1  0.53656116  0.48504648  0.02242473  1
  Cd  Cd5  1  0.74018173  0.69646058  -0.00719174  1
  Cd  Cd6  1  0.25609475  0.00727783  0.25162845  1
  Cd  Cd7  1  0.49289004  0.21394428  0.24311552  1
  Cd  Cd8  1  0.77647475  0.49059378  0.27313193  1
  Cd  Cd9  1  0.46650976  -0.00376651  0.52899670  1
  Cd  Cd10  1  0.77509316  0.25037328  0.54486381  1
  Cd  Cd11  1  0.78848471  -0.05228678  0.77606801  1
  Cd  Cd12  1  0.02191814  0.47598545  0.02652717  1
  Cd  Cd13  1  0.22556876  0.75891078  0.01268620  1
  Cd  Cd14  1  0.03209298  0.25873188  0.23549714  1
  Cd  Cd15  1  0.23840840  0.48464151  0.24235604  1
  Cd  Cd16  1  0.49167031  0.74151203  0.22527040  1
  Cd  Cd17  1  0.01966734  -0.00078200  0.51895032  1
  Cd  Cd18  1  0.27984710  0.25591154  0.51068046  1
  Cd  Cd19  1  0.52690873  0.48647834  0.49408216  1
  Cd  Cd20  1  0.74994342  0.75393939  0.47800653  1
  Cd  Cd21  1  0.26839760  -0.01404297  0.77005557  1
  Cd  Cd22  1  0.48634913  0.24583775  0.75504307  1
  Cd  Cd23  1  0.71701810  0.47623068  0.74799896  1
  Cd  Cd24  1  -0.01746755  0.72568631  0.26823975  1
  Cd  Cd25  1  -0.02130300  0.53804499  0.50281152  1
  Cd  Cd26  1  0.24983393  0.76192185  0.49761402  1
  Cd  Cd27  1  0.03647365  0.25677561  0.78530086  1
  Cd  Cd28  1  0.26748743  0.50693284  0.72174097  1
  Cd  Cd29  1  0.51542076  0.76793654  0.73302967  1
  Cd  Cd30  1  0.01858208  0.74507334  0.74308372  1
  Te  Te31  1  0.86345095  0.38349583  0.39378129  1
  Te  Te32  1  0.13627075  0.63976882  0.39710586  1
  Te  Te33  1  0.10940084  0.39006876  0.66476578  1
  Te  Te34  1  0.39817942  0.39789816  0.37804835  1
  Te  Te35  1  0.63288508  0.62555081  0.34967202  1
  Te  Te36  1  0.87814930  0.85988892  0.38826595  1
  Te  Te37  1  0.10142815  0.11857450  0.34741039  1
  Te  Te38  1  0.58345782  0.39872325  0.64836354  1
  Te  Te39  1  0.89704281  0.64418861  0.60935169  1
  Te  Te40  1  0.12814962  0.88003654  0.61314500  1
  Te  Te41  1  0.89357109  0.40250119  0.86711251  1
  Te  Te42  1  0.10550951  0.60277695  0.84692001  1
  Te  Te43  1  0.13600673  0.36288765  0.13043164  1
  Te  Te44  1  0.34379336  0.87980263  0.38076217  1
  Te  Te45  1  0.59281891  0.11893515  0.40463327  1
  Te  Te46  1  0.39328718  0.61824930  0.64889322  1
  Te  Te47  1  0.62475886  0.88531159  0.64958963  1
  Te  Te48  1  0.87424473  0.10478253  0.63800768  1
  Te  Te49  1  0.38558774  0.35519746  0.87034241  1
  Te  Te50  1  0.64542257  0.59568818  0.88899762  1
  Te  Te51  1  0.91249902  0.91249902  0.91249902  1
  Te  Te52  1  0.08750098  0.08750098  0.91249902  1
  Te  Te53  1  0.64912238  0.36519932  0.13623798  1
  Te  Te54  1  0.90459808  0.64334505  0.11145145  1
  Te  Te55  1  0.10636591  0.87373442  0.17478682  1
  Te  Te56  1  0.36328350  0.12694076  0.67050686  1
  Te  Te57  1  0.36431303  0.87791954  0.87532298  1
  Te  Te58  1  0.62561892  0.13205441  0.84000801  1
  Te  Te59  1  0.34844827  0.66923471  0.12410333  1
  Te  Te60  1  0.66470017  0.86079567  0.17331931  1
  Te  Te61  1  0.87129397  0.14531643  0.12613975  1
  Te  Te62  1  0.34046880  0.12710505  0.13761309  1
