# generated using pymatgen
data_SnH5CI3N2
_symmetry_space_group_name_H-M   'P 1'
_cell_length_a   6.34057814
_cell_length_b   6.16536492
_cell_length_c   6.27882696
_cell_angle_alpha   90.00000000
_cell_angle_beta   90.00000000
_cell_angle_gamma   90.00000000
_symmetry_Int_Tables_number   1
_chemical_formula_structural   SnH5CI3N2
_chemical_formula_sum   'Sn1 H5 C1 I3 N2'
_cell_volume   245.45176519
_cell_formula_units_Z   1
loop_
 _symmetry_equiv_pos_site_id
 _symmetry_equiv_pos_as_xyz
  1  'x, y, z'
loop_
 _atom_site_type_symbol
 _atom_site_label
 _atom_site_symmetry_multiplicity
 _atom_site_fract_x
 _atom_site_fract_y
 _atom_site_fract_z
 _atom_site_occupancy
  Sn  Sn0  1  0.50000000  0.49094331  0.50000000  1
  H  H1  1  0.00000000  0.25383163  0.00000000  1
  H  H2  1  0.31487314  0.07617925  0.00000000  1
  H  H3  1  0.20430388  -0.18557929  0.00000000  1
  H  H4  1  -0.20430388  -0.18557929  0.00000000  1
  H  H5  1  -0.31487314  0.07617925  0.00000000  1
  C  C6  1  0.00000000  0.07589580  0.00000000  1
  I  I7  1  0.00000000  0.49271941  0.50000000  1
  I  I8  1  0.50000000  -0.02059649  0.50000000  1
  I  I9  1  0.50000000  0.47064504  0.00000000  1
  N  N10  1  0.18359332  -0.02062094  0.00000000  1
  N  N11  1  -0.18359332  -0.02062094  0.00000000  1
