# generated using pymatgen
data_Cd31Te32
_symmetry_space_group_name_H-M   'P 1'
_cell_length_a   13.08676800
_cell_length_b   13.08676800
_cell_length_c   13.08676800
_cell_angle_alpha   90.00000000
_cell_angle_beta   90.00000000
_cell_angle_gamma   90.00000000
_symmetry_Int_Tables_number   1
_chemical_formula_structural   Cd31Te32
_chemical_formula_sum   'Cd31 Te32'
_cell_volume   2241.28564800
_cell_formula_units_Z   1
loop_
 _symmetry_equiv_pos_site_id
 _symmetry_equiv_pos_as_xyz
  1  'x, y, z'
loop_
 _atom_site_type_symbol
 _atom_site_label
 _atom_site_symmetry_multiplicity
 _atom_site_fract_x
 _atom_site_fract_y
 _atom_site_fract_z
 _atom_site_occupancy
  Cd  Cd0  1  0.50000000  0.00000000  0.00000000  1.0
  Cd  Cd1  1  0.75000000  0.25000000  0.00000000  1.0
  Cd  Cd2  1  0.75000000  0.00000000  0.25000000  1.0
  Cd  Cd3  1  0.25000000  0.25000000  0.00000000  1.0
  Cd  Cd4  1  0.50000000  0.50000000  0.00000000  1.0
  Cd  Cd5  1  0.75000000  0.75000000  0.00000000  1.0
  Cd  Cd6  1  0.25000000  0.00000000  0.25000000  1.0
  Cd  Cd7  1  0.50000000  0.25000000  0.25000000  1.0
  Cd  Cd8  1  0.75000000  0.50000000  0.25000000  1.0
  Cd  Cd9  1  0.50000000  0.00000000  0.50000000  1.0
  Cd  Cd10  1  0.75000000  0.25000000  0.50000000  1.0
  Cd  Cd11  1  0.75000000  0.00000000  0.75000000  1.0
  Cd  Cd12  1  0.00000000  0.50000000  0.00000000  1.0
  Cd  Cd13  1  0.25000000  0.75000000  0.00000000  1.0
  Cd  Cd14  1  0.00000000  0.25000000  0.25000000  1.0
  Cd  Cd15  1  0.25000000  0.50000000  0.25000000  1.0
  Cd  Cd16  1  0.50000000  0.75000000  0.25000000  1.0
  Cd  Cd17  1  0.00000000  0.00000000  0.50000000  1.0
  Cd  Cd18  1  0.25000000  0.25000000  0.50000000  1.0
  Cd  Cd19  1  0.50000000  0.50000000  0.50000000  1.0
  Cd  Cd20  1  0.75000000  0.75000000  0.50000000  1.0
  Cd  Cd21  1  0.25000000  0.00000000  0.75000000  1.0
  Cd  Cd22  1  0.50000000  0.25000000  0.75000000  1.0
  Cd  Cd23  1  0.75000000  0.50000000  0.75000000  1.0
  Cd  Cd24  1  0.00000000  0.75000000  0.25000000  1.0
  Cd  Cd25  1  0.00000000  0.50000000  0.50000000  1.0
  Cd  Cd26  1  0.25000000  0.75000000  0.50000000  1.0
  Cd  Cd27  1  0.00000000  0.25000000  0.75000000  1.0
  Cd  Cd28  1  0.25000000  0.50000000  0.75000000  1.0
  Cd  Cd29  1  0.50000000  0.75000000  0.75000000  1.0
  Cd  Cd30  1  0.00000000  0.75000000  0.75000000  1.0
  Te  Te31  1  0.87500000  0.37500000  0.37500000  1.0
  Te  Te32  1  0.12500000  0.62500000  0.37500000  1.0
  Te  Te33  1  0.12500000  0.37500000  0.62500000  1.0
  Te  Te34  1  0.37500000  0.37500000  0.37500000  1.0
  Te  Te35  1  0.62500000  0.62500000  0.37500000  1.0
  Te  Te36  1  0.87500000  0.87500000  0.37500000  1.0
  Te  Te37  1  0.12500000  0.12500000  0.37500000  1.0
  Te  Te38  1  0.62500000  0.37500000  0.62500000  1.0
  Te  Te39  1  0.87500000  0.62500000  0.62500000  1.0
  Te  Te40  1  0.12500000  0.87500000  0.62500000  1.0
  Te  Te41  1  0.87500000  0.37500000  0.87500000  1.0
  Te  Te42  1  0.12500000  0.62500000  0.87500000  1.0
  Te  Te43  1  0.12500000  0.37500000  0.12500000  1.0
  Te  Te44  1  0.37500000  0.87500000  0.37500000  1.0
  Te  Te45  1  0.62500000  0.12500000  0.37500000  1.0
  Te  Te46  1  0.37500000  0.62500000  0.62500000  1.0
  Te  Te47  1  0.62500000  0.87500000  0.62500000  1.0
  Te  Te48  1  0.87500000  0.12500000  0.62500000  1.0
  Te  Te49  1  0.37500000  0.37500000  0.87500000  1.0
  Te  Te50  1  0.62500000  0.62500000  0.87500000  1.0
  Te  Te51  1  0.87500000  0.87500000  0.87500000  1.0
  Te  Te52  1  0.12500000  0.12500000  0.87500000  1.0
  Te  Te53  1  0.62500000  0.37500000  0.12500000  1.0
  Te  Te54  1  0.87500000  0.62500000  0.12500000  1.0
  Te  Te55  1  0.12500000  0.87500000  0.12500000  1.0
  Te  Te56  1  0.37500000  0.12500000  0.62500000  1.0
  Te  Te57  1  0.37500000  0.87500000  0.87500000  1.0
  Te  Te58  1  0.62500000  0.12500000  0.87500000  1.0
  Te  Te59  1  0.37500000  0.62500000  0.12500000  1.0
  Te  Te60  1  0.62500000  0.87500000  0.12500000  1.0
  Te  Te61  1  0.87500000  0.12500000  0.12500000  1.0
  Te  Te62  1  0.37500000  0.12500000  0.12500000  1.0
