# generated using pymatgen
data_Cd31Te32
_symmetry_space_group_name_H-M   'P 1'
_cell_length_a   13.08676800
_cell_length_b   13.08676800
_cell_length_c   13.08676800
_cell_angle_alpha   90.00000000
_cell_angle_beta   90.00000000
_cell_angle_gamma   90.00000000
_symmetry_Int_Tables_number   1
_chemical_formula_structural   Cd31Te32
_chemical_formula_sum   'Cd31 Te32'
_cell_volume   2241.28564800
_cell_formula_units_Z   1
loop_
 _symmetry_equiv_pos_site_id
 _symmetry_equiv_pos_as_xyz
  1  'x, y, z'
loop_
 _atom_site_type_symbol
 _atom_site_label
 _atom_site_symmetry_multiplicity
 _atom_site_fract_x
 _atom_site_fract_y
 _atom_site_fract_z
 _atom_site_occupancy
  Cd  Cd0  1  0.01568712  0.01684992  0.50136596  1
  Cd  Cd1  1  0.02715001  0.49572622  0.01002248  1
  Cd  Cd2  1  -0.00144957  0.49807315  0.47811922  1
  Cd  Cd3  1  0.47220942  0.02005063  -0.01826922  1
  Cd  Cd4  1  0.48855853  -0.00538787  0.48176730  1
  Cd  Cd5  1  0.50562821  0.51862780  -0.02697461  1
  Cd  Cd6  1  0.48016885  0.52572440  0.52480554  1
  Cd  Cd7  1  -0.03483164  0.27289443  0.23874605  1
  Cd  Cd8  1  -0.01057455  0.26655533  0.72497043  1
  Cd  Cd9  1  -0.00756907  0.70732329  0.25403021  1
  Cd  Cd10  1  -0.00509104  0.73554232  0.76795441  1
  Cd  Cd11  1  0.50058164  0.28205364  0.23354029  1
  Cd  Cd12  1  0.51645114  0.25424502  0.73228237  1
  Cd  Cd13  1  0.50708286  0.75264628  0.28947658  1
  Cd  Cd14  1  0.50495850  0.76816720  0.75919422  1
  Cd  Cd15  1  0.23144390  -0.01396916  0.27108986  1
  Cd  Cd16  1  0.23763691  0.00536879  0.73816530  1
  Cd  Cd17  1  0.27183740  0.49228922  0.24517842  1
  Cd  Cd18  1  0.26229475  0.51735497  0.72602134  1
  Cd  Cd19  1  0.74210139  -0.03693943  0.26011018  1
  Cd  Cd20  1  0.76430103  0.00825597  0.73751447  1
  Cd  Cd21  1  0.77722986  0.50617379  0.24188844  1
  Cd  Cd22  1  0.71129195  0.48918180  0.74528622  1
  Cd  Cd23  1  0.25976260  0.26547504  -0.01381787  1
  Cd  Cd24  1  0.28569114  0.26676074  0.48243794  1
  Cd  Cd25  1  0.25533085  0.73241216  -0.02708362  1
  Cd  Cd26  1  0.28778743  0.72109627  0.49605964  1
  Cd  Cd27  1  0.77560920  0.26967413  -0.00946151  1
  Cd  Cd28  1  0.76746033  0.24339365  0.53425826  1
  Cd  Cd29  1  0.76598070  0.75927418  0.00844263  1
  Cd  Cd30  1  0.74510924  0.75232504  0.49373546  1
  Te  Te31  1  0.11875685  0.15079372  0.37621009  1
  Te  Te32  1  0.16250181  0.16250181  0.83749819  1
  Te  Te33  1  0.13123594  0.63285520  0.42025981  1
  Te  Te34  1  0.11288841  0.61829517  0.84730395  1
  Te  Te35  1  0.63157978  0.12259392  0.37003399  1
  Te  Te36  1  0.62838476  0.11043227  0.84620953  1
  Te  Te37  1  0.62312333  0.64317855  0.38036369  1
  Te  Te38  1  0.61326489  0.64435816  0.89245105  1
  Te  Te39  1  0.11393399  0.36818442  0.15180173  1
  Te  Te40  1  0.12714364  0.36670784  0.60278719  1
  Te  Te41  1  0.16250181  0.83749819  0.16250181  1
  Te  Te42  1  0.12737279  0.89191086  0.64399677  1
  Te  Te43  1  0.61418212  0.37151002  0.11272616  1
  Te  Te44  1  0.61734114  0.38706979  0.56819153  1
  Te  Te45  1  0.60822454  0.88394671  0.11295790  1
  Te  Te46  1  0.67420546  0.91081864  0.60629187  1
  Te  Te47  1  0.36063833  0.12770918  0.16147520  1
  Te  Te48  1  0.37525204  0.11394354  0.59338963  1
  Te  Te49  1  0.40609416  0.60790890  0.11140969  1
  Te  Te50  1  0.38031286  0.64262436  0.63958828  1
  Te  Te51  1  0.89474287  0.13988221  0.09711540  1
  Te  Te52  1  0.90502138  0.12764677  0.59480897  1
  Te  Te53  1  0.89586534  0.62439319  0.10527060  1
  Te  Te54  1  0.89973015  0.62602805  0.62869097  1
  Te  Te55  1  0.39036319  0.37500404  0.36936335  1
  Te  Te56  1  0.38409866  0.37657973  0.87019751  1
  Te  Te57  1  0.37948271  0.88540322  0.36748369  1
  Te  Te58  1  0.39172425  0.85434094  0.87843525  1
  Te  Te59  1  0.88177754  0.38135437  0.40317440  1
  Te  Te60  1  0.87941086  0.39468227  0.87570067  1
  Te  Te61  1  0.88329900  0.90896160  0.36272692  1
  Te  Te62  1  0.84606542  0.89010798  0.86943084  1
